/*--------------------------------*- C++ -*----------------------------------*\
| =========                 |                                                 |
| \\      /  F ield         | OpenFOAM: The Open Source CFD Toolbox           |
|  \\    /   O peration     | Version:  4.x                                   |
|   \\  /    A nd           | Web:      www.OpenFOAM.org                      |
|    \\/     M anipulation  |                                                 |
\*---------------------------------------------------------------------------*/
FoamFile
{
    version     2.0;
    format      ascii;
    class       dictionary;
    location    "system";
    object      controlDict;
}
// * * * * * * * * * * * * * * * * * * * * * * * * * * * * * * * * * * * * * //

application     twoPhaseEulerFoam;
startFrom       latestTime;
startTime       0;
stopAt          endTime;
endTime         60;
deltaT          0.000625;
writeControl    adjustableRunTime;
writeInterval   1;
purgeWrite      1;
writeFormat     binary;
writePrecision  12;
writeCompression uncompressed;
timeFormat      general;
timePrecision   12;
runTimeModifiable no;
adjustTimeStep  no;
maxCo           0.7;
maxDeltaT       1;

functions
{
    
    fieldMinMax1
    {
        type            fieldMinMax;
        libs            ("libfieldFunctionObjects.so");

        fields          (U.air U.water Ur );
        location   yes;
        mode            component; // magnitude | component
    }
    
	probes
	{
	
    
	functionObjectLibs ( "libsampling.so" );
	type        probes;
	name        probes;
	outputControl timeStep;

	fields (
        p 
        U.air
        U.water	
        k.air
        k.water	
            );

	probeLocations
	(
	( 0.20 0.1025 0.05) 
	( 0.20 0.1025 0.10)  
	( 0.20 0.1025 0.15)      
	);
	}
	
	fieldAverage1
    {
        type            fieldAverage;
        libs            ("libfieldFunctionObjects.so");
        writeControl    writeTime;
        enabled         true;
        outputControl   outputTime;
        timeStart       30;
        timeEnd         60;
		
        fields
        (
            U.air
            {
                 mean        on;
                 prime2Mean  off;
                 base        time;
            }

            U.water
            {
                 mean        on;
                 prime2Mean  off;
                 base        time;
            }

            alpha.air
            {
                 mean        on;
                 prime2Mean  off;
                 base        time;
            }
			
            k.water
            {
                 mean        on;
                 prime2Mean  off;
                 base        time;
            }

            
        );
    }
}



// ************************************************************************* //
