FoamFile
{
    version      2.0;
    format       ascii;
    class        dictionary;
    object       blockMeshDict;
}

convertToMeters 1;

vertices
(
(0.00000 0.00000 0.00000) // 0
(0.00000 0.00000 0.00500) // 1
(0.00000 0.00000 0.03500) // 2
(0.00000 0.00000 0.25000) // 3
(0.00000 0.00500 0.00000) // 4
(0.00000 0.00500 0.00500) // 5
(0.00000 0.00500 0.03500) // 6
(0.00000 0.00500 0.25000) // 7
(0.00000 0.02750 0.00000) // 8
(0.00000 0.02750 0.00500) // 9
(0.00000 0.02750 0.03500) // 10
(0.00000 0.02750 0.25000) // 11
(0.00000 0.06750 0.03500) // 12
(0.00000 0.06750 0.25000) // 13
(0.00000 0.10250 0.03500) // 14
(0.00000 0.10250 0.25000) // 15
(0.00500 0.00000 0.00000) // 16
(0.00500 0.00000 0.00500) // 17
(0.00500 0.00000 0.03500) // 18
(0.00500 0.00000 0.25000) // 19
(0.00500 0.00500 0.00000) // 20
(0.00500 0.00500 0.00500) // 21
(0.00500 0.00500 0.03500) // 22
(0.00500 0.00500 0.25000) // 23
(0.00500 0.02750 0.00000) // 24
(0.00500 0.02750 0.00500) // 25
(0.00500 0.02750 0.03500) // 26
(0.00500 0.02750 0.25000) // 27
(0.00500 0.06750 0.03500) // 28
(0.00500 0.06750 0.25000) // 29
(0.00500 0.10250 0.03500) // 30
(0.00500 0.10250 0.25000) // 31
(0.04000 0.00000 0.00000) // 32
(0.04000 0.00000 0.00500) // 33
(0.04000 0.00000 0.03500) // 34
(0.04000 0.00000 0.25000) // 35
(0.04000 0.00500 0.00000) // 36
(0.04000 0.00500 0.00500) // 37
(0.04000 0.00500 0.03500) // 38
(0.04000 0.00500 0.25000) // 39
(0.04000 0.02750 0.00000) // 40
(0.04000 0.02750 0.00500) // 41
(0.04000 0.02750 0.03500) // 42
(0.04000 0.02750 0.25000) // 43
(0.04000 0.06750 0.00000) // 44
(0.04000 0.06750 0.00500) // 45
(0.04000 0.06750 0.03500) // 46
(0.04000 0.06750 0.25000) // 47
(0.04000 0.10250 0.00000) // 48
(0.04000 0.10250 0.00500) // 49
(0.04000 0.10250 0.03500) // 50
(0.04000 0.10250 0.25000) // 51
(0.39500 0.00000 0.00000) // 52
(0.39500 0.00000 0.00500) // 53
(0.39500 0.00000 0.03500) // 54
(0.39500 0.00000 0.25000) // 55
(0.39500 0.00500 0.00000) // 56
(0.39500 0.00500 0.00500) // 57
(0.39500 0.00500 0.03500) // 58
(0.39500 0.00500 0.25000) // 59
(0.39500 0.02750 0.00000) // 60
(0.39500 0.02750 0.00500) // 61
(0.39500 0.02750 0.03500) // 62
(0.39500 0.02750 0.25000) // 63
(0.39500 0.06750 0.00000) // 64
(0.39500 0.06750 0.00500) // 65
(0.39500 0.06750 0.03500) // 66
(0.39500 0.06750 0.25000) // 67
(0.39500 0.10250 0.00000) // 68
(0.39500 0.10250 0.00500) // 69
(0.39500 0.10250 0.03500) // 70
(0.39500 0.10250 0.25000) // 71
(0.40000 0.00000 0.00000) // 72
(0.40000 0.00000 0.00500) // 73
(0.40000 0.00000 0.03500) // 74
(0.40000 0.00000 0.25000) // 75
(0.40000 0.00500 0.00000) // 76
(0.40000 0.00500 0.00500) // 77
(0.40000 0.00500 0.03500) // 78
(0.40000 0.00500 0.25000) // 79
(0.40000 0.02750 0.00000) // 80
(0.40000 0.02750 0.00500) // 81
(0.40000 0.02750 0.03500) // 82
(0.40000 0.02750 0.25000) // 83
(0.40000 0.06750 0.00000) // 84
(0.40000 0.06750 0.00500) // 85
(0.40000 0.06750 0.03500) // 86
(0.40000 0.06750 0.25000) // 87
(0.40000 0.10250 0.00000) // 88
(0.40000 0.10250 0.00500) // 89
(0.40000 0.10250 0.03500) // 90
(0.40000 0.10250 0.25000) // 91
);

blocks
(
    hex (0 16 20 4 1 17 21 5) (4 3 3) simpleGrading (1 1 1)
    hex (16 32 36 20 17 33 37 21) (19 3 3) simpleGrading (1 1 1)
    hex (32 52 56 36 33 53 57 37) (192 3 3) simpleGrading (1 1 1)
    hex (52 72 76 56 53 73 77 57) (3 3 3) simpleGrading (1 1 1)
    hex (4 20 24 8 5 21 25 9) (4 12 3) simpleGrading (1 1 1)
    hex (20 36 40 24 21 37 41 25) (19 12 3) simpleGrading (1 1 1)
    hex (36 56 60 40 37 57 61 41) (192 12 3) simpleGrading (1 1 1)
    hex (56 76 80 60 57 77 81 61) (3 12 3) simpleGrading (1 1 1)
    hex (40 60 64 44 41 61 65 45) (192 22 3) simpleGrading (1 1 1)
    hex (60 80 84 64 61 81 85 65) (3 22 3) simpleGrading (1 1 1)
    hex (44 64 68 48 45 65 69 49) (192 19 3) simpleGrading (1 1 1)
    hex (64 84 88 68 65 85 89 69) (3 19 3) simpleGrading (1 1 1)
    hex (1 17 21 5 2 18 22 6) (4 3 16) simpleGrading (1 1 1)
    hex (17 33 37 21 18 34 38 22) (19 3 16) simpleGrading (1 1 1)
    hex (33 53 57 37 34 54 58 38) (192 3 16) simpleGrading (1 1 1)
    hex (53 73 77 57 54 74 78 58) (3 3 16) simpleGrading (1 1 1)
    hex (5 21 25 9 6 22 26 10) (4 12 16) simpleGrading (1 1 1)
    hex (21 37 41 25 22 38 42 26) (19 12 16) simpleGrading (1 1 1)
    hex (37 57 61 41 38 58 62 42) (192 12 16) simpleGrading (1 1 1)
    hex (57 77 81 61 58 78 82 62) (3 12 16) simpleGrading (1 1 1)
    hex (41 61 65 45 42 62 66 46) (192 22 16) simpleGrading (1 1 1)
    hex (61 81 85 65 62 82 86 66) (3 22 16) simpleGrading (1 1 1)
    hex (45 65 69 49 46 66 70 50) (192 19 16) simpleGrading (1 1 1)
    hex (65 85 89 69 66 86 90 70) (3 19 16) simpleGrading (1 1 1)
    hex (2 18 22 6 3 19 23 7) (4 3 116) simpleGrading (1 1 1)
    hex (18 34 38 22 19 35 39 23) (19 3 116) simpleGrading (1 1 1)
    hex (34 54 58 38 35 55 59 39) (192 3 116) simpleGrading (1 1 1)
    hex (54 74 78 58 55 75 79 59) (3 3 116) simpleGrading (1 1 1)
    hex (6 22 26 10 7 23 27 11) (4 12 116) simpleGrading (1 1 1)
    hex (22 38 42 26 23 39 43 27) (19 12 116) simpleGrading (1 1 1)
    hex (38 58 62 42 39 59 63 43) (192 12 116) simpleGrading (1 1 1)
    hex (58 78 82 62 59 79 83 63) (3 12 116) simpleGrading (1 1 1)
    hex (10 26 28 12 11 27 29 13) (4 22 116) simpleGrading (1 1 1)
    hex (26 42 46 28 27 43 47 29) (19 22 116) simpleGrading (1 1 1)
    hex (42 62 66 46 43 63 67 47) (192 22 116) simpleGrading (1 1 1)
    hex (62 82 86 66 63 83 87 67) (3 22 116) simpleGrading (1 1 1)
    hex (12 28 30 14 13 29 31 15) (4 19 116) simpleGrading (1 1 1)
    hex (28 46 50 30 29 47 51 31) (19 19 116) simpleGrading (1 1 1)
    hex (46 66 70 50 47 67 71 51) (192 19 116) simpleGrading (1 1 1)
    hex (66 86 90 70 67 87 91 71) (3 19 116) simpleGrading (1 1 1)
);

boundary
(
    inlet
    {
        type patch;
        faces
        (
         (28 30 50 46) 
        );
    }
    walls
    {
        type wall;
        faces
        (
         (12 14 30 28) 
         (10 12 28 26) 
         (26 28 46 42) 
         (25 26 42 41) 
         (24 25 41 40) 
         (8 9 25 24) 
         (9 10 26 25) 
         (41 42 46 45) 
         (45 46 50 49) 
         (44 45 49 48) 
         (40 41 45 44) 
         (4 5 9 8) 
         (5 6 10 9) 
         (1 2 6 5) 
         (0 1 5 4) 
         (0 4 20 16) 
         (4 8 24 20) 
         (20 24 40 36) 
         (16 20 36 32) 
         (32 36 56 52) 
         (36 40 60 56) 
         (40 44 64 60) 
         (44 48 68 64) 
         (12 13 15 14) 
         (10 11 13 12) 
         (6 7 11 10) 
         (2 3 7 6) 
         (1 17 18 2) 
         (0 16 17 1) 
         (16 32 33 17) 
         (17 33 34 18) 
         (18 34 35 19) 
         (2 18 19 3) 
         (34 54 55 35) 
         (33 53 54 34) 
         (32 52 53 33) 
         (56 60 80 76) 
         (60 64 84 80) 
         (64 68 88 84) 
         (52 56 76 72) 
         (52 72 73 53) 
         (53 73 74 54) 
         (54 74 75 55) 
         (81 82 78 77) 
         (77 78 74 73) 
         (78 79 75 74) 
         (82 83 79 78) 
         (80 81 77 76) 
         (76 77 73 72) 
         (84 85 81 80) 
         (85 86 82 81) 
         (86 87 83 82) 
         (89 90 86 85) 
         (90 91 87 86) 
         (88 89 85 84) 
        );
    }
    plane
    {
        type symmetryPlane;
        faces
        (
         (50 51 71 70) 
         (30 31 51 50) 
         (14 15 31 30) 
         (49 50 70 69) 
         (48 49 69 68) 
         (70 71 91 90) 
         (69 70 90 89) 
         (68 69 89 88) 
        );
    }
    outlet
    {
        type patch;
        faces
        (
         (47 67 71 51) 
         (43 63 67 47) 
         (39 59 63 43) 
         (63 83 87 67) 
         (67 87 91 71) 
         (59 79 83 63) 
         (35 55 59 39) 
         (55 75 79 59) 
         (29 47 51 31) 
         (27 43 47 29) 
         (23 39 43 27) 
         (19 35 39 23) 
         (3 19 23 7) 
         (7 23 27 11) 
         (11 27 29 13) 
         (13 29 31 15) 
        );
    }
);


edges
(
);

edges
(
);
